FoamFile
{
    format      ascii;
    class       volVectorField;
    location    "0";
    object      U;
}
dimensions      [0 1 -1 0 0 0 0];
internalField   uniform (0 0 0); 
boundaryField
{
    top
    {
        type            symmetryPlane;
    }
    substrate
    {
        type            noSlip;
        // type            movingWallVelocity;
        // value           uniform (0.5 0 0);
    }
    left
    {
        type            noSlip;
    }
    right
    {
        type            noSlip;
    }
    frontAndBack
    {
        type            empty;
    }
}